<?xml version="1.0" encoding="UTF-8" ?>

<Form version="1.5" maxVersion="1.7" type="org.netbeans.modules.form.forminfo.JInternalFrameFormInfo">
  <NonVisualComponents>
    <Menu class="javax.swing.JMenuBar" name="mb">
      <SubComponents>
        <Menu class="javax.swing.JMenu" name="menFile">
          <Properties>
            <Property name="mnemonic" type="int" value="102"/>
            <Property name="text" type="java.lang.String" value="File"/>
          </Properties>
          <SubComponents>
            <MenuItem class="javax.swing.JMenuItem" name="miFileOpenFASTA">
              <Properties>
                <Property name="icon" type="javax.swing.Icon" editor="org.netbeans.modules.form.editors2.IconEditor">
                  <Image iconType="3" name="/images/SharedImages/database.png"/>
                </Property>
                <Property name="text" type="java.lang.String" value="Open sequence file..."/>
              </Properties>
              <Events>
                <EventHandler event="actionPerformed" listener="java.awt.event.ActionListener" parameters="java.awt.event.ActionEvent" handler="miFileOpenFASTAActionPerformed"/>
              </Events>
            </MenuItem>
            <MenuItem class="javax.swing.JMenuItem" name="miFileOpenGFF">
              <Properties>
                <Property name="icon" type="javax.swing.Icon" editor="org.netbeans.modules.form.editors2.IconEditor">
                  <Image iconType="3" name="/images/SharedImages/edit.png"/>
                </Property>
                <Property name="text" type="java.lang.String" value="Open annotations file..."/>
                <Property name="enabled" type="boolean" value="false"/>
              </Properties>
              <Events>
                <EventHandler event="actionPerformed" listener="java.awt.event.ActionListener" parameters="java.awt.event.ActionEvent" handler="miFileOpenGFFActionPerformed"/>
              </Events>
            </MenuItem>
            <Menu class="javax.swing.JMenu" name="menFilePatman">
              <Properties>
                <Property name="icon" type="javax.swing.Icon" editor="org.netbeans.modules.form.editors2.IconEditor">
                  <Image iconType="3" name="/images/SharedImages/processing-02.png"/>
                </Property>
                <Property name="text" type="java.lang.String" value="Open Patman file"/>
                <Property name="enabled" type="boolean" value="false"/>
              </Properties>
              <SubComponents>
                <MenuItem class="javax.swing.JMenuItem" name="miPatmanDisplayAll">
                  <Properties>
                    <Property name="text" type="java.lang.String" value="View all..."/>
                  </Properties>
                </MenuItem>
                <MenuItem class="javax.swing.JMenuItem" name="miPatmanDisplayAggregated">
                  <Properties>
                    <Property name="text" type="java.lang.String" value="View aggregated..."/>
                  </Properties>
                </MenuItem>
              </SubComponents>
            </Menu>
            <MenuItem class="javax.swing.JMenuItem" name="miFileParesnip">
              <Properties>
                <Property name="icon" type="javax.swing.Icon" editor="org.netbeans.modules.form.editors2.IconEditor">
                  <Image iconType="3" name="/images/SharedImages/bar-chart.png"/>
                </Property>
                <Property name="text" type="java.lang.String" value="View PARESnip results..."/>
              </Properties>
            </MenuItem>
            <MenuItem class="javax.swing.JPopupMenu$Separator" name="sep1">
            </MenuItem>
            <MenuItem class="javax.swing.JMenuItem" name="miFileTakePicture">
              <Properties>
                <Property name="icon" type="javax.swing.Icon" editor="org.netbeans.modules.form.editors2.IconEditor">
                  <Image iconType="3" name="/images/SharedImages/screen.png"/>
                </Property>
                <Property name="mnemonic" type="int" value="112"/>
                <Property name="text" type="java.lang.String" value="Take picture..."/>
              </Properties>
            </MenuItem>
            <MenuItem class="javax.swing.JPopupMenu$Separator" name="sep2">
            </MenuItem>
            <MenuItem class="javax.swing.JMenuItem" name="miFileTest">
              <Properties>
                <Property name="text" type="java.lang.String" value="Run test"/>
              </Properties>
              <Events>
                <EventHandler event="actionPerformed" listener="java.awt.event.ActionListener" parameters="java.awt.event.ActionEvent" handler="miFileTestActionPerformed"/>
              </Events>
            </MenuItem>
            <MenuItem class="javax.swing.JMenuItem" name="miClose">
              <Properties>
                <Property name="icon" type="javax.swing.Icon" editor="org.netbeans.modules.form.editors2.IconEditor">
                  <Image iconType="3" name="/images/SharedImages/close-tool.png"/>
                </Property>
                <Property name="text" type="java.lang.String" value="Close"/>
              </Properties>
              <Events>
                <EventHandler event="actionPerformed" listener="java.awt.event.ActionListener" parameters="java.awt.event.ActionEvent" handler="miCloseActionPerformed"/>
              </Events>
            </MenuItem>
          </SubComponents>
        </Menu>
        <Menu class="javax.swing.JMenu" name="menViewTPlots">
          <Properties>
            <Property name="text" type="java.lang.String" value="T-plots"/>
          </Properties>
        </Menu>
        <Menu class="javax.swing.JMenu" name="menHelp">
          <Properties>
            <Property name="text" type="java.lang.String" value="Help"/>
          </Properties>
          <SubComponents>
            <MenuItem class="javax.swing.JMenuItem" name="miHelpContents">
              <Properties>
                <Property name="icon" type="javax.swing.Icon" editor="org.netbeans.modules.form.editors2.IconEditor">
                  <Image iconType="3" name="/images/SharedImages/lookup.png"/>
                </Property>
                <Property name="text" type="java.lang.String" value="Contents"/>
              </Properties>
            </MenuItem>
            <MenuItem class="javax.swing.JMenuItem" name="settingsMnu">
              <Properties>
                <Property name="text" type="java.lang.String" value="Settings"/>
              </Properties>
              <Events>
                <EventHandler event="actionPerformed" listener="java.awt.event.ActionListener" parameters="java.awt.event.ActionEvent" handler="settingsMnuActionPerformed"/>
              </Events>
            </MenuItem>
          </SubComponents>
        </Menu>
      </SubComponents>
    </Menu>
  </NonVisualComponents>
  <Properties>
    <Property name="background" type="java.awt.Color" editor="org.netbeans.beaninfo.editors.ColorEditor">
      <Color blue="78" green="78" red="78" type="rgb"/>
    </Property>
    <Property name="closable" type="boolean" value="true"/>
    <Property name="iconifiable" type="boolean" value="true"/>
    <Property name="maximizable" type="boolean" value="true"/>
    <Property name="resizable" type="boolean" value="true"/>
    <Property name="title" type="java.lang.String" value="VisSR"/>
    <Property name="cursor" type="java.awt.Cursor" editor="org.netbeans.modules.form.editors2.CursorEditor">
      <Color id="Default Cursor"/>
    </Property>
    <Property name="font" type="java.awt.Font" editor="org.netbeans.beaninfo.editors.FontEditor">
      <Font name="Lucida Grande" size="12" style="0"/>
    </Property>
    <Property name="frameIcon" type="javax.swing.Icon" editor="org.netbeans.modules.form.editors2.IconEditor">
      <Image iconType="3" name="/images/GUI_Icons/DNA.jpg"/>
    </Property>
    <Property name="minimumSize" type="java.awt.Dimension" editor="org.netbeans.beaninfo.editors.DimensionEditor">
      <Dimension value="[800, 600]"/>
    </Property>
    <Property name="name" type="java.lang.String" value="_frame" noResource="true"/>
    <Property name="requestFocusEnabled" type="boolean" value="false"/>
  </Properties>
  <SyntheticProperties>
    <SyntheticProperty name="menuBar" type="java.lang.String" value="mb"/>
    <SyntheticProperty name="formSizePolicy" type="int" value="1"/>
  </SyntheticProperties>
  <Events>
    <EventHandler event="internalFrameActivated" listener="javax.swing.event.InternalFrameListener" parameters="javax.swing.event.InternalFrameEvent" handler="formInternalFrameActivated"/>
    <EventHandler event="internalFrameOpened" listener="javax.swing.event.InternalFrameListener" parameters="javax.swing.event.InternalFrameEvent" handler="formInternalFrameOpened"/>
    <EventHandler event="componentResized" listener="java.awt.event.ComponentListener" parameters="java.awt.event.ComponentEvent" handler="formComponentResized"/>
    <EventHandler event="propertyChange" listener="java.beans.PropertyChangeListener" parameters="java.beans.PropertyChangeEvent" handler="formPropertyChange"/>
  </Events>
  <AuxValues>
    <AuxValue name="FormSettings_autoResourcing" type="java.lang.Integer" value="0"/>
    <AuxValue name="FormSettings_autoSetComponentName" type="java.lang.Boolean" value="false"/>
    <AuxValue name="FormSettings_generateFQN" type="java.lang.Boolean" value="true"/>
    <AuxValue name="FormSettings_generateMnemonicsCode" type="java.lang.Boolean" value="false"/>
    <AuxValue name="FormSettings_i18nAutoMode" type="java.lang.Boolean" value="false"/>
    <AuxValue name="FormSettings_layoutCodeTarget" type="java.lang.Integer" value="1"/>
    <AuxValue name="FormSettings_listenerGenerationStyle" type="java.lang.Integer" value="0"/>
    <AuxValue name="FormSettings_variablesLocal" type="java.lang.Boolean" value="false"/>
    <AuxValue name="FormSettings_variablesModifier" type="java.lang.Integer" value="2"/>
    <AuxValue name="designerSize" type="java.awt.Dimension" value="-84,-19,0,5,115,114,0,18,106,97,118,97,46,97,119,116,46,68,105,109,101,110,115,105,111,110,65,-114,-39,-41,-84,95,68,20,2,0,2,73,0,6,104,101,105,103,104,116,73,0,5,119,105,100,116,104,120,112,0,0,2,-67,0,0,4,-92"/>
  </AuxValues>

  <Layout class="org.netbeans.modules.form.compat2.layouts.DesignBorderLayout"/>
  <SubComponents>
    <Container class="javax.swing.JPanel" name="pnlVis">
      <Constraints>
        <Constraint layoutClass="org.netbeans.modules.form.compat2.layouts.DesignBorderLayout" value="org.netbeans.modules.form.compat2.layouts.DesignBorderLayout$BorderConstraintsDescription">
          <BorderConstraints direction="Center"/>
        </Constraint>
      </Constraints>

      <Layout class="org.netbeans.modules.form.compat2.layouts.DesignBorderLayout"/>
      <SubComponents>
        <Container class="javax.swing.JPanel" name="pnlTop">
          <Constraints>
            <Constraint layoutClass="org.netbeans.modules.form.compat2.layouts.DesignBorderLayout" value="org.netbeans.modules.form.compat2.layouts.DesignBorderLayout$BorderConstraintsDescription">
              <BorderConstraints direction="First"/>
            </Constraint>
          </Constraints>

          <Layout class="org.netbeans.modules.form.compat2.layouts.DesignBorderLayout"/>
          <SubComponents>
            <Container class="javax.swing.JPanel" name="pnlNav">
              <Properties>
                <Property name="background" type="java.awt.Color" editor="org.netbeans.beaninfo.editors.ColorEditor">
                  <Color blue="78" green="78" red="78" type="rgb"/>
                </Property>
                <Property name="border" type="javax.swing.border.Border" editor="org.netbeans.modules.form.editors2.BorderEditor">
                  <Border info="org.netbeans.modules.form.compat2.border.EtchedBorderInfo">
                    <EtchetBorder/>
                  </Border>
                </Property>
                <Property name="foreground" type="java.awt.Color" editor="org.netbeans.beaninfo.editors.ColorEditor">
                  <Color blue="ff" green="ff" id="white" palette="1" red="ff" type="palette"/>
                </Property>
                <Property name="maximumSize" type="java.awt.Dimension" editor="org.netbeans.beaninfo.editors.DimensionEditor">
                  <Dimension value="[32767, 42]"/>
                </Property>
                <Property name="minimumSize" type="java.awt.Dimension" editor="org.netbeans.beaninfo.editors.DimensionEditor">
                  <Dimension value="[0, 42]"/>
                </Property>
                <Property name="preferredSize" type="java.awt.Dimension" editor="org.netbeans.beaninfo.editors.DimensionEditor">
                  <Dimension value="[0, 42]"/>
                </Property>
              </Properties>
              <Constraints>
                <Constraint layoutClass="org.netbeans.modules.form.compat2.layouts.DesignBorderLayout" value="org.netbeans.modules.form.compat2.layouts.DesignBorderLayout$BorderConstraintsDescription">
                  <BorderConstraints direction="First"/>
                </Constraint>
              </Constraints>

              <Layout>
                <DimensionLayout dim="0">
                  <Group type="103" groupAlignment="0" attributes="0">
                      <Group type="102" attributes="0">
                          <EmptySpace min="10" pref="10" max="-2" attributes="0"/>
                          <Component id="lblIgnore" min="-2" pref="110" max="-2" attributes="0"/>
                          <EmptySpace min="8" pref="8" max="-2" attributes="0"/>
                          <Component id="txtNav" min="-2" max="-2" attributes="0"/>
                          <EmptySpace min="14" pref="14" max="-2" attributes="0"/>
                          <Component id="btnLL" min="-2" max="-2" attributes="0"/>
                          <EmptySpace min="1" pref="1" max="-2" attributes="0"/>
                          <Component id="btnL" min="-2" max="-2" attributes="0"/>
                          <EmptySpace min="1" pref="1" max="-2" attributes="0"/>
                          <Component id="btnR" min="-2" max="-2" attributes="0"/>
                          <EmptySpace min="1" pref="1" max="-2" attributes="0"/>
                          <Component id="btnRR" min="-2" max="-2" attributes="0"/>
                          <EmptySpace min="17" pref="17" max="-2" attributes="0"/>
                          <Component id="btnParesnipFilterResults" min="-2" pref="110" max="-2" attributes="0"/>
                          <EmptySpace min="1" pref="1" max="-2" attributes="0"/>
                          <Component id="btnParesnipClearFilter" min="-2" pref="110" max="-2" attributes="0"/>
                      </Group>
                  </Group>
                </DimensionLayout>
                <DimensionLayout dim="1">
                  <Group type="103" groupAlignment="0" attributes="0">
                      <Group type="102" attributes="0">
                          <EmptySpace min="12" pref="12" max="-2" attributes="0"/>
                          <Component id="lblIgnore" min="-2" max="-2" attributes="0"/>
                      </Group>
                      <Group type="102" attributes="0">
                          <EmptySpace min="9" pref="9" max="-2" attributes="0"/>
                          <Component id="txtNav" min="-2" max="-2" attributes="0"/>
                      </Group>
                      <Group type="102" attributes="0">
                          <EmptySpace min="8" pref="8" max="-2" attributes="0"/>
                          <Component id="btnLL" min="-2" max="-2" attributes="0"/>
                      </Group>
                      <Group type="102" attributes="0">
                          <EmptySpace min="8" pref="8" max="-2" attributes="0"/>
                          <Component id="btnL" min="-2" max="-2" attributes="0"/>
                      </Group>
                      <Group type="102" attributes="0">
                          <EmptySpace min="8" pref="8" max="-2" attributes="0"/>
                          <Component id="btnR" min="-2" max="-2" attributes="0"/>
                      </Group>
                      <Group type="102" attributes="0">
                          <EmptySpace min="8" pref="8" max="-2" attributes="0"/>
                          <Component id="btnRR" min="-2" max="-2" attributes="0"/>
                      </Group>
                      <Group type="102" attributes="0">
                          <EmptySpace min="8" pref="8" max="-2" attributes="0"/>
                          <Component id="btnParesnipFilterResults" min="-2" max="-2" attributes="0"/>
                      </Group>
                      <Group type="102" attributes="0">
                          <EmptySpace min="8" pref="8" max="-2" attributes="0"/>
                          <Component id="btnParesnipClearFilter" min="-2" max="-2" attributes="0"/>
                      </Group>
                  </Group>
                </DimensionLayout>
              </Layout>
              <SubComponents>
                <Component class="javax.swing.JLabel" name="lblIgnore">
                  <Properties>
                    <Property name="text" type="java.lang.String" value="Combo added here"/>
                    <Property name="opaque" type="boolean" value="true"/>
                  </Properties>
                </Component>
                <Component class="javax.swing.JTextField" name="txtNav">
                  <Properties>
                    <Property name="columns" type="int" value="20"/>
                    <Property name="font" type="java.awt.Font" editor="org.netbeans.beaninfo.editors.FontEditor">
                      <Font name="Tahoma" size="12" style="0"/>
                    </Property>
                    <Property name="toolTipText" type="java.lang.String" value="&lt;html&gt;&#xa;Enter range here.&lt;br&gt;&#xa;Use the format &apos;start - end&apos; or &apos;start + width&apos; (kb and mb are shorthand for kilobases and megabases).&lt;br&gt;&#xa;Enter an identifier to perform a search, e.g. a gene identifier.&#xa;&lt;/html&gt;"/>
                    <Property name="border" type="javax.swing.border.Border" editor="org.netbeans.modules.form.editors2.BorderEditor">
                      <Border info="org.netbeans.modules.form.compat2.border.SoftBevelBorderInfo">
                        <BevelBorder bevelType="1"/>
                      </Border>
                    </Property>
                    <Property name="margin" type="java.awt.Insets" editor="org.netbeans.beaninfo.editors.InsetsEditor">
                      <Insets value="[0, 4, 0, 0]"/>
                    </Property>
                    <Property name="maximumSize" type="java.awt.Dimension" editor="org.netbeans.beaninfo.editors.DimensionEditor">
                      <Dimension value="[2147483647, 20]"/>
                    </Property>
                    <Property name="minimumSize" type="java.awt.Dimension" editor="org.netbeans.beaninfo.editors.DimensionEditor">
                      <Dimension value="[24, 20]"/>
                    </Property>
                    <Property name="preferredSize" type="java.awt.Dimension" editor="org.netbeans.beaninfo.editors.DimensionEditor">
                      <Dimension value="[190, 20]"/>
                    </Property>
                  </Properties>
                </Component>
                <Component class="javax.swing.JButton" name="btnLL">
                  <Properties>
                    <Property name="background" type="java.awt.Color" editor="org.netbeans.beaninfo.editors.ColorEditor">
                      <Color blue="78" green="78" red="78" type="rgb"/>
                    </Property>
                    <Property name="font" type="java.awt.Font" editor="org.netbeans.beaninfo.editors.FontEditor">
                      <Font name="Tahoma" size="12" style="0"/>
                    </Property>
                    <Property name="text" type="java.lang.String" value="&lt;&lt;"/>
                    <Property name="iconTextGap" type="int" value="0"/>
                    <Property name="margin" type="java.awt.Insets" editor="org.netbeans.beaninfo.editors.InsetsEditor">
                      <Insets value="[0, 0, 0, 0]"/>
                    </Property>
                    <Property name="preferredSize" type="java.awt.Dimension" editor="org.netbeans.beaninfo.editors.DimensionEditor">
                      <Dimension value="[45, 23]"/>
                    </Property>
                  </Properties>
                </Component>
                <Component class="javax.swing.JButton" name="btnL">
                  <Properties>
                    <Property name="background" type="java.awt.Color" editor="org.netbeans.beaninfo.editors.ColorEditor">
                      <Color blue="78" green="78" red="78" type="rgb"/>
                    </Property>
                    <Property name="font" type="java.awt.Font" editor="org.netbeans.beaninfo.editors.FontEditor">
                      <Font name="Tahoma" size="12" style="0"/>
                    </Property>
                    <Property name="text" type="java.lang.String" value="&lt;"/>
                    <Property name="iconTextGap" type="int" value="0"/>
                    <Property name="margin" type="java.awt.Insets" editor="org.netbeans.beaninfo.editors.InsetsEditor">
                      <Insets value="[0, 0, 0, 0]"/>
                    </Property>
                    <Property name="preferredSize" type="java.awt.Dimension" editor="org.netbeans.beaninfo.editors.DimensionEditor">
                      <Dimension value="[45, 23]"/>
                    </Property>
                  </Properties>
                </Component>
                <Component class="javax.swing.JButton" name="btnR">
                  <Properties>
                    <Property name="background" type="java.awt.Color" editor="org.netbeans.beaninfo.editors.ColorEditor">
                      <Color blue="78" green="78" red="78" type="rgb"/>
                    </Property>
                    <Property name="font" type="java.awt.Font" editor="org.netbeans.beaninfo.editors.FontEditor">
                      <Font name="Tahoma" size="12" style="0"/>
                    </Property>
                    <Property name="text" type="java.lang.String" value="&gt;"/>
                    <Property name="iconTextGap" type="int" value="0"/>
                    <Property name="margin" type="java.awt.Insets" editor="org.netbeans.beaninfo.editors.InsetsEditor">
                      <Insets value="[0, 0, 0, 0]"/>
                    </Property>
                    <Property name="preferredSize" type="java.awt.Dimension" editor="org.netbeans.beaninfo.editors.DimensionEditor">
                      <Dimension value="[45, 23]"/>
                    </Property>
                  </Properties>
                </Component>
                <Component class="javax.swing.JButton" name="btnRR">
                  <Properties>
                    <Property name="background" type="java.awt.Color" editor="org.netbeans.beaninfo.editors.ColorEditor">
                      <Color blue="78" green="78" red="78" type="rgb"/>
                    </Property>
                    <Property name="font" type="java.awt.Font" editor="org.netbeans.beaninfo.editors.FontEditor">
                      <Font name="Tahoma" size="12" style="0"/>
                    </Property>
                    <Property name="text" type="java.lang.String" value="&gt;&gt;"/>
                    <Property name="iconTextGap" type="int" value="0"/>
                    <Property name="margin" type="java.awt.Insets" editor="org.netbeans.beaninfo.editors.InsetsEditor">
                      <Insets value="[0, 0, 0, 0]"/>
                    </Property>
                    <Property name="preferredSize" type="java.awt.Dimension" editor="org.netbeans.beaninfo.editors.DimensionEditor">
                      <Dimension value="[45, 23]"/>
                    </Property>
                  </Properties>
                </Component>
                <Component class="javax.swing.JButton" name="btnParesnipFilterResults">
                  <Properties>
                    <Property name="background" type="java.awt.Color" editor="org.netbeans.beaninfo.editors.ColorEditor">
                      <Color blue="78" green="78" red="78" type="rgb"/>
                    </Property>
                    <Property name="font" type="java.awt.Font" editor="org.netbeans.beaninfo.editors.FontEditor">
                      <Font name="Tahoma" size="12" style="0"/>
                    </Property>
                    <Property name="text" type="java.lang.String" value="Filter results..."/>
                    <Property name="iconTextGap" type="int" value="0"/>
                    <Property name="margin" type="java.awt.Insets" editor="org.netbeans.beaninfo.editors.InsetsEditor">
                      <Insets value="[2, 0, 2, 0]"/>
                    </Property>
                    <Property name="preferredSize" type="java.awt.Dimension" editor="org.netbeans.beaninfo.editors.DimensionEditor">
                      <Dimension value="[42, 23]"/>
                    </Property>
                  </Properties>
                </Component>
                <Component class="javax.swing.JButton" name="btnParesnipClearFilter">
                  <Properties>
                    <Property name="background" type="java.awt.Color" editor="org.netbeans.beaninfo.editors.ColorEditor">
                      <Color blue="78" green="78" red="78" type="rgb"/>
                    </Property>
                    <Property name="font" type="java.awt.Font" editor="org.netbeans.beaninfo.editors.FontEditor">
                      <Font name="Tahoma" size="12" style="0"/>
                    </Property>
                    <Property name="text" type="java.lang.String" value="Clear filter"/>
                    <Property name="iconTextGap" type="int" value="0"/>
                    <Property name="margin" type="java.awt.Insets" editor="org.netbeans.beaninfo.editors.InsetsEditor">
                      <Insets value="[2, 0, 2, 0]"/>
                    </Property>
                    <Property name="preferredSize" type="java.awt.Dimension" editor="org.netbeans.beaninfo.editors.DimensionEditor">
                      <Dimension value="[42, 23]"/>
                    </Property>
                  </Properties>
                </Component>
              </SubComponents>
            </Container>
            <Container class="javax.swing.JPanel" name="pnlOverview">
              <Properties>
                <Property name="background" type="java.awt.Color" editor="org.netbeans.beaninfo.editors.ColorEditor">
                  <Color blue="78" green="78" red="78" type="rgb"/>
                </Property>
                <Property name="border" type="javax.swing.border.Border" editor="org.netbeans.modules.form.editors2.BorderEditor">
                  <Border info="org.netbeans.modules.form.compat2.border.EtchedBorderInfo">
                    <EtchetBorder/>
                  </Border>
                </Property>
                <Property name="foreground" type="java.awt.Color" editor="org.netbeans.beaninfo.editors.ColorEditor">
                  <Color blue="ff" green="ff" id="white" palette="1" red="ff" type="palette"/>
                </Property>
                <Property name="maximumSize" type="java.awt.Dimension" editor="org.netbeans.beaninfo.editors.DimensionEditor">
                  <Dimension value="[2147483647, 42]"/>
                </Property>
                <Property name="minimumSize" type="java.awt.Dimension" editor="org.netbeans.beaninfo.editors.DimensionEditor">
                  <Dimension value="[0, 42]"/>
                </Property>
                <Property name="preferredSize" type="java.awt.Dimension" editor="org.netbeans.beaninfo.editors.DimensionEditor">
                  <Dimension value="[0, 42]"/>
                </Property>
              </Properties>
              <Constraints>
                <Constraint layoutClass="org.netbeans.modules.form.compat2.layouts.DesignBorderLayout" value="org.netbeans.modules.form.compat2.layouts.DesignBorderLayout$BorderConstraintsDescription">
                  <BorderConstraints direction="Last"/>
                </Constraint>
              </Constraints>

              <Layout class="org.netbeans.modules.form.compat2.layouts.DesignBorderLayout"/>
            </Container>
          </SubComponents>
        </Container>
        <Container class="javax.swing.JPanel" name="pnlDetail">
          <Properties>
            <Property name="background" type="java.awt.Color" editor="org.netbeans.beaninfo.editors.ColorEditor">
              <Color blue="78" green="78" red="78" type="rgb"/>
            </Property>
            <Property name="border" type="javax.swing.border.Border" editor="org.netbeans.modules.form.editors2.BorderEditor">
              <Border info="org.netbeans.modules.form.compat2.border.EtchedBorderInfo">
                <EtchetBorder/>
              </Border>
            </Property>
          </Properties>
          <Constraints>
            <Constraint layoutClass="org.netbeans.modules.form.compat2.layouts.DesignBorderLayout" value="org.netbeans.modules.form.compat2.layouts.DesignBorderLayout$BorderConstraintsDescription">
              <BorderConstraints direction="Center"/>
            </Constraint>
          </Constraints>

          <Layout class="org.netbeans.modules.form.compat2.layouts.DesignBorderLayout"/>
        </Container>
      </SubComponents>
    </Container>
    <Component class="javax.swing.JLabel" name="lblStatusBar">
      <Properties>
        <Property name="background" type="java.awt.Color" editor="org.netbeans.beaninfo.editors.ColorEditor">